Matlab_PF/ac5ac9.m
function mpc = case5_case9

%% MATPOWER Case Format : Version 2
mpc.version = '2';

%%-----  Power Flow Data  -----%%
%% system MVA base
mpc.baseMVA = 100;

%% bus data

%	bus_i	type	Pd	Qd	Gs	Bs	area	Vm	Va	baseKV	zone	Vmax	Vmin  grid
mpc.bus = [
    1       3       0	0	0   0   1       1.06	0	345     1       1.1     0.9       1;
	2       1       20	10	0   0   1       1       0	345     1       1.1     0.9       1;
	3       1       45	15	0   0   1       1       0	345     1       1.1     0.9       1;
	4       2       40	5	0   0   1       1       0	345     1       1.1     0.9       1;
	5       1       60	10	0   0   1       1       0	345     1       1.1     0.9       1;
    1	    3	    0	0	0	0	1	    1	    0	345	    1	    1.1	    0.9       2;
	2 	    2	    0	0	0	0	1	    1	    0	345	    1	    1.1	    0.9       2;
	3	    1	    0	0	0	0	1	    1	    0	345	    1	    1.1	    0.9       2;
	4	    1	    0	0	0	0	1	    1	    0	345	    1	    1.1	    0.9       2;
	5	    2	    90	30	0	0	1	    1	    0	345	    1	    1.1	    0.9       2;
	6	    1	    0	0	0	0	1	    1	    0	345	    1	    1.1	    0.9       2;
	7	    1	    100	35	0	0	1	    1	    0	345	    1	    1.1	    0.9       2;
	8	    1	    0	0	0	0	1	    1	    0	345	    1	    1.1	    0.9       2;
	9	    1	    125	50	0	0	1	    1	    0	345	    1	    1.1	    0.9       2;
];

%% generator data
%	bus	Pg	Qg	Qmax	Qmin	Vg	mBase	status	Pmax	Pmin	Pc1	Pc2	Qc1min	Qc1max	Qc2min	Qc2max	ramp_agc  ramp_10  ramp_30  ramp_q  apf  grid 
mpc.gen = [
    1	0       0	500      -500    1.06	100       1       250     10   0	0	0	0	0	0	0	0	0	0	0  1;
  	4	40      0	300      -300    1      100       1       40     40   0	0	0	0	0	0	0	0	0	0   0  1;
    1	72.3	27.03	300	-300	1.04	100	1	250	10	0	0	0	0	0	0	0	0	0	0	0  2;
	2	163	6.54	300	-300	1.025	100	1	300	10	0	0	0	0	0	0	0	0	0	0	0  2;
	5	85	-10.95	300	-300	1.025	100	1	270	10	0	0	0	0	0	0	0	0	0	0	0  2;
];

%% branch data
%	fbus	tbus	r	x	b	rateA	rateB	rateC	ratio	angle	status	angmin	angmax  grid
mpc.branch = [
    1   2   0.02    0.06    0.06    100   100   100     0       0       1    -360	360  1;
    1   3   0.08    0.24    0.05    100   100   100     0       0       1    -360	360  1;
    2   3   0.06    0.18    0.04    100   100   100     0       0       1    -360	360  1;
    2   4   0.06    0.18    0.04    100   100   100     0       0       1    -360	360  1;
    2   5   0.04    0.12    0.03    100   100   100     0       0       1    -360	360  1;
    3   4   0.01    0.03    0.02    100   100   100     0       0       1    -360	360  1;
    4   5   0.08    0.24    0.05    100   100   100     0       0       1    -360	360  1;
    1	4	0	0.0576	0	250	250	250	0	0	1	-360	360  2;
	4	5	0.017	0.092	0.158	250	250	250	0	0	1	-360	360  2;
	5	6	0.039	0.17	0.358	150	150	150	0	0	1	-360	360  2;
	3	6	0	0.0586	0	300	300	300	0	0	1	-360	360  2;
	6	7	0.0119	0.1008	0.209	150	150	150	0	0	1	-360	360  2;
	7	8	0.0085	0.072	0.149	250	250	250	0	0	1	-360	360  2;
	8	2	0	0.0625	0	250	250	250	0	0	1	-360	360  2;
	8	9	0.032	0.161	0.306	250	250	250	0	0	1	-360	360  2;
	9	4	0.01	0.085	0.176	250	250	250	0	0	1	-360	360  2;
];

%%-----  OPF Data  -----%%
%% generator cost data
%	1	startup	shutdown	n	x1	y1	...	xn	yn  grid
%	2	startup	shutdown	n	c(n-1)	...	c0  grid
mpc.gencost = [
    2	1500	0	3	0.11	5	150  1;
	2	2000	0	3	0.085	1.2	600  1;
    2	1500	0	3	0.11	5	150  2;
	2	2000	0	3	0.085	1.2	600  2;
	2	3000	0	3	0.1225	1	335  2;
];